%chk=CO2_PM6_Opt_Freq_Full_NBO.chk
#p opt=tight freq=raman pm6 guess=save pop=(hirshfeld,full,nbo)
geom=connectivity polar

CO2 PM6 Opt Freq

0 1
 C                  2.92043382    0.67811934    0.00000000
 O                  4.17883382    0.67811934    0.00000000
 O                  1.66203382    0.67811934    0.00000000

 1 2 2.0 3 2.0
 2
 3

