%chk=N2_DFT_B3LPY_apVTZ_Opt_Freq_Full.chk
#p opt freq=raman b3lyp/aug-cc-pvtz guess=save pop=(hirshfeld,full)
geom=connectivity polar

N2 Opt Freq DFT B3LPY aug-cc-pVTX Full

0 1
 N                  0.63322366    0.52631578    0.00000000
 N                 -0.45877634    0.52631578    0.00000000

 1 2 3.0
 2

