%chk=O2_DFT_uWB97XD_apVTZ_Opt_Freq_Full_NBO.chk
#p opt=tight freq=raman uwb97xd/aug-cc-pvtz guess=save
pop=(hirshfeld,full,nbo) geom=connectivity polar

O2 DFT uWB97XD aug-cc-pVTZ Opt Freq - Full - NBO

0 1
 O                 -1.02169976    0.56962024    0.00000000
 O                 -2.18329976    0.56962024    0.00000000

 1 2 2.0
 2

