%chk=O2_uHF_6311pp2d3p_Opt_Freq_Full_NBO.chk
#p opt=tight freq=raman uhf/6-311++g(2d,3p) guess=save
pop=(hirshfeld,full,nbo) geom=connectivity polar

O2 uHF 6-311++g(2d,3p) Opt Freq

0 1
 O                 -0.53345386    0.31645569    0.00000000
 O                 -1.69505386    0.31645569    0.00000000

 1 2 2.0
 2

