%nprocshared=12
%mem=12GB
%chk=r1234yf_DFT_B3LPY_6311pp2d3p_Opt_Freq_Full_NBO.chk
#p opt=tight freq b3lyp/6-311++g(2d,3p) guess=save
pop=(hirshfeld,full,nbo) geom=connectivity polar

R1234YF DFT B3LPY 6-311++g(2d,3p) Opt Freq - Full - NBO

0 2
 C                 -1.11165419    1.03928071    0.00325629
 F                 -0.40991026    1.47028259    1.07297253
 F                 -2.29800395    1.68171544   -0.04523959
 C                 -0.31705398    1.33079836   -1.28330034
 H                 -0.14905663    2.38414425   -1.36779488
 F                 -1.32361347   -0.28970710    0.10986155
 F                  0.86929578    0.68836363   -1.23480446
 C                 -1.02150092    0.89813633   -2.35713697
 H                 -1.28361500   -0.13563217   -2.44384864
 H                 -1.31558389    1.59029592   -3.11827448

 1 2 1.0 3 1.0 4 1.0 6 1.0
 2
 3
 4 5 1.0 7 1.0 8 2.0
 5
 6
 7
 8 9 1.0 10 1.0
 9
 10

