%nprocshared=8
%mem=8GB
%chk=r152a_PM6_Opt_Freq_Full.chk
#p opt=tight freq pm6 guess=save pop=(hirshfeld,full) geom=connectivity
polar

r152a PM6 Opt Freq - Full - NBO

0 1
 C                  0.15369758   -0.35262486    0.00201198
 H                  0.51043799    0.15172597   -0.87163927
 C                  0.66703665    0.37333384    1.25941684
 H                  1.73703664    0.37325140    1.25945956
 H                  0.31044771    1.38216699    1.25937429
 H                  0.31029624   -0.13101700    2.13306809
 F                 -1.19630241   -0.35252085    0.00195808
 F                  0.60359952   -1.62545173    0.00206567

 1 2 1.0 3 1.0 7 1.0 8 1.0
 2
 3 4 1.0 5 1.0 6 1.0
 4
 5
 6
 7
 8

